2
Lattice="2.8866 0.0 0.0 0.0 2.8866 0.0 0.0 0.0 2.8866" Properties=species:S:1:pos:R:3:initial_magmoms:R:1:forces:R:3 energy=-16.433865237621404 stresses="_JSON [0.05251262132394931, 0.052512621323949474, 0.05251262130999885, 9.23167280669388e-18, 1.153959100836735e-18, -2.30791820167347e-18]" pbc="T T T"
Fe       0.00000000       0.00000000       0.00000000       2.30000000       0.00000000      -0.00000000      -0.00000000
Fe       1.44330000       1.44330000       1.44330000       2.30000000      -0.00000000       0.00000000       0.00000000
