2
Lattice="3.396 0.0 0.0 0.0 3.396 0.0 0.0 0.0 3.396" Properties=species:S:1:pos:R:3:initial_magmoms:R:1:forces:R:3 energy=-14.243773968075079 stresses="_JSON [0.16932760546594777, 0.16932773466739023, 0.16932763957930688, -4.070994170804663e-09, 4.357320926976731e-08, 4.7380616599194066e-09]" pbc="T T T"
Fe       0.00059606      -0.00016592       0.00077723       2.30000000      -0.00003934       0.00000367       0.00003380
Fe       1.69982764       1.69771902       1.69771904       2.30000000       0.00003934      -0.00000367      -0.00003380
2
Lattice="3.396 0.0 0.0 0.0 3.396 0.0 0.0 0.0 3.396" Properties=species:S:1:pos:R:3:initial_magmoms:R:1:forces:R:3 energy=-14.243773968075077 stresses="_JSON [0.1693276054659479, 0.16932773466739037, 0.16932763957930708, -4.0709941197800535e-09, 4.357320929244491e-08, 4.7380615975559946e-09]" pbc="T T T"
Fe       0.00059606      -0.00016592       0.00077723       2.30000000      -0.00003934       0.00000367       0.00003380
Fe       1.69982764       1.69771902       1.69771904       2.30000000       0.00003934      -0.00000367      -0.00003380
2
Lattice="3.396 0.0 0.0 0.0 3.396 0.0 0.0 0.0 3.396" Properties=species:S:1:pos:R:3:initial_magmoms:R:1:forces:R:3 energy=-14.243773968075075 stresses="_JSON [0.16932760546594777, 0.1693277346673902, 0.16932763957930688, -4.0709941226147535e-09, 4.357320928535816e-08, 4.738061591886594e-09]" pbc="T T T"
Fe       0.00059606      -0.00016592       0.00077723       2.30000000      -0.00003934       0.00000367       0.00003380
Fe       1.69982764       1.69771902       1.69771904       2.30000000       0.00003934      -0.00000367      -0.00003380
2
Lattice="3.396 0.0 0.0 0.0 3.396 0.0 0.0 0.0 3.396" Properties=species:S:1:pos:R:3:initial_magmoms:R:1:forces:R:3 energy=-14.243773968075075 stresses="_JSON [0.16932760546594777, 0.16932773466739034, 0.16932763957930694, -4.0709940971024495e-09, 4.3573209264097904e-08, 4.738061620233599e-09]" pbc="T T T"
Fe       0.00059606      -0.00016592       0.00077723       2.30000000      -0.00003934       0.00000367       0.00003380
Fe       1.69982764       1.69771902       1.69771904       2.30000000       0.00003934      -0.00000367      -0.00003380
2
Lattice="3.396 0.0 0.0 0.0 3.396 0.0 0.0 0.0 3.396" Properties=species:S:1:pos:R:3:initial_magmoms:R:1:forces:R:3 energy=-14.243773968075075 stresses="_JSON [0.16932760546594783, 0.16932773466739026, 0.16932763957930702, -4.070994197734318e-09, 4.357320935339097e-08, 4.738061654250006e-09]" pbc="T T T"
Fe       0.00059606      -0.00016592       0.00077723       2.30000000      -0.00003934       0.00000367       0.00003380
Fe       1.69982764       1.69771902       1.69771904       2.30000000       0.00003934      -0.00000367      -0.00003380
2
Lattice="3.396 0.0 0.0 0.0 3.396 0.0 0.0 0.0 3.396" Properties=species:S:1:pos:R:3:initial_magmoms:R:1:forces:R:3 energy=-14.243773968075079 stresses="_JSON [0.16932760546594777, 0.16932773466739026, 0.16932763957930688, -4.070994192064917e-09, 4.357320929244491e-08, 4.738061546531385e-09]" pbc="T T T"
Fe       0.00059606      -0.00016592       0.00077723       2.30000000      -0.00003934       0.00000367       0.00003380
Fe       1.69982764       1.69771902       1.69771904       2.30000000       0.00003934      -0.00000367      -0.00003380
2
Lattice="3.396 0.0 0.0 0.0 3.396 0.0 0.0 0.0 3.396" Properties=species:S:1:pos:R:3:initial_magmoms:R:1:forces:R:3 energy=-14.243773968075075 stresses="_JSON [0.1693276054659478, 0.1693277346673903, 0.16932763957930694, -4.070994159465861e-09, 4.357320928819286e-08, 4.738061614564198e-09]" pbc="T T T"
Fe       0.00059606      -0.00016592       0.00077723       2.30000000      -0.00003934       0.00000367       0.00003380
Fe       1.69982764       1.69771902       1.69771904       2.30000000       0.00003934      -0.00000367      -0.00003380
2
Lattice="3.396 0.0 0.0 0.0 3.396 0.0 0.0 0.0 3.396" Properties=species:S:1:pos:R:3:initial_magmoms:R:1:forces:R:3 energy=-14.243773968075077 stresses="_JSON [0.1693276054659479, 0.16932773466739043, 0.16932763957930708, -4.070994132536206e-09, 4.3573209262680554e-08, 4.738061625903e-09]" pbc="T T T"
Fe       0.00059606      -0.00016592       0.00077723       2.30000000      -0.00003934       0.00000367       0.00003380
Fe       1.69982764       1.69771902       1.69771904       2.30000000       0.00003934      -0.00000367      -0.00003380
2
Lattice="3.396 0.0 0.0 0.0 3.396 0.0 0.0 0.0 3.396" Properties=species:S:1:pos:R:3:initial_magmoms:R:1:forces:R:3 energy=-14.243773968075077 stresses="_JSON [0.16932760546594774, 0.16932773466739026, 0.16932763957930688, -4.070994175056714e-09, 4.357320928535816e-08, 4.7380615975559946e-09]" pbc="T T T"
Fe       0.00059606      -0.00016592       0.00077723       2.30000000      -0.00003934       0.00000367       0.00003380
Fe       1.69982764       1.69771902       1.69771904       2.30000000       0.00003934      -0.00000367      -0.00003380
2
Lattice="3.396 0.0 0.0 0.0 3.396 0.0 0.0 0.0 3.396" Properties=species:S:1:pos:R:3:initial_magmoms:R:1:forces:R:3 energy=-14.243773968075075 stresses="_JSON [0.16932760546594783, 0.16932773466739034, 0.169327639579307, -4.070994199151668e-09, 4.357320928677551e-08, 4.738061546531385e-09]" pbc="T T T"
Fe       0.00059606      -0.00016592       0.00077723       2.30000000      -0.00003934       0.00000367       0.00003380
Fe       1.69982764       1.69771902       1.69771904       2.30000000       0.00003934      -0.00000367      -0.00003380
2
Lattice="3.1130000000000004 0.0 0.0 0.0 3.1130000000000004 0.0 0.0 0.0 3.1130000000000004" Properties=species:S:1:pos:R:3:initial_magmoms:R:1:forces:R:3 energy=-15.745146784006266 stresses="_JSON [0.15372436588086202, 0.1537241900898903, 0.15372431945360637, 3.782486303494106e-09, -4.048630574533258e-08, -4.402310704121987e-09]" pbc="T T T"
Fe       0.00054639      -0.00015209       0.00071246       2.30000000       0.00318802      -0.00029786      -0.00273919
Fe       1.55817533       1.55624243       1.55624245       2.30000000      -0.00318802       0.00029786       0.00273919
2
Lattice="3.396 0.0 0.0 0.0 3.396 0.0 0.0 0.0 3.396" Properties=species:S:1:pos:R:3:initial_magmoms:R:1:forces:R:3 energy=-14.243773968075077 stresses="_JSON [0.16932760546594772, 0.16932773466739026, 0.1693276395793069, -4.070994264349781e-09, 4.357320919039569e-08, 4.738061665588807e-09]" pbc="T T T"
Fe       0.00059606      -0.00016592       0.00077723       2.30000000      -0.00003934       0.00000367       0.00003380
Fe       1.69982764       1.69771902       1.69771904       2.30000000       0.00003934      -0.00000367      -0.00003380
2
Lattice="3.396 0.0 0.0 0.0 3.396 0.0 0.0 0.0 3.396" Properties=species:S:1:pos:R:3:initial_magmoms:R:1:forces:R:3 energy=-14.243773968075077 stresses="_JSON [0.16932760546594786, 0.16932773466739034, 0.16932763957930702, -4.070994132536206e-09, 4.357320933213072e-08, 4.738061699605214e-09]" pbc="T T T"
Fe       0.00059606      -0.00016592       0.00077723       2.30000000      -0.00003934       0.00000367       0.00003380
Fe       1.69982764       1.69771902       1.69771904       2.30000000       0.00003934      -0.00000367      -0.00003380
2
Lattice="3.1130000000000004 0.0 0.0 0.0 3.1130000000000004 0.0 0.0 0.0 3.1130000000000004" Properties=species:S:1:pos:R:3:initial_magmoms:R:1:forces:R:3 energy=-15.745146784006266 stresses="_JSON [0.153724365880862, 0.15372419008989024, 0.15372431945360632, 3.782486306254265e-09, -4.048630577385422e-08, -4.4023106857209255e-09]" pbc="T T T"
Fe       0.00054639      -0.00015209       0.00071246       2.30000000       0.00318802      -0.00029786      -0.00273919
Fe       1.55817533       1.55624243       1.55624245       2.30000000      -0.00318802       0.00029786       0.00273919
2
Lattice="3.1130000000000004 0.0 0.0 0.0 3.1130000000000004 0.0 0.0 0.0 3.1130000000000004" Properties=species:S:1:pos:R:3:initial_magmoms:R:1:forces:R:3 energy=-15.745146784006266 stresses="_JSON [0.153724365880862, 0.15372419008989024, 0.15372431945360626, 3.782486285093045e-09, -4.0486305777534434e-08, -4.402310678360501e-09]" pbc="T T T"
Fe       0.00054639      -0.00015209       0.00071246       2.30000000       0.00318802      -0.00029786      -0.00273919
Fe       1.55817533       1.55624243       1.55624245       2.30000000      -0.00318802       0.00029786       0.00273919
2
Lattice="2.8866 0.0 0.0 0.0 2.8866 0.0 0.0 0.0 2.8866" Properties=species:S:1:pos:R:3:initial_magmoms:R:1:forces:R:3 energy=-16.43386523762141 stresses="_JSON [0.05251262132394918, 0.05251262132394917, 0.05251262130999865, -6.923754605020411e-18, -1.9617304714224497e-17, 0.0]" pbc="T T T"
Fe       0.00000000       0.00000000       0.00000000       2.30000000      -0.00000000      -0.00000000      -0.00000000
Fe       1.44330000       1.44330000       1.44330000       2.30000000       0.00000000       0.00000000       0.00000000
2
Lattice="2.8866 0.0 0.0 0.0 2.8866 0.0 0.0 0.0 2.8866" Properties=species:S:1:pos:R:3:initial_magmoms:R:1:forces:R:3 energy=-16.433865237621408 stresses="_JSON [0.05251262132394917, 0.05251262132394929, 0.05251262130999873, -6.923754605020411e-18, -5.769795504183675e-19, -6.923754605020411e-18]" pbc="T T T"
Fe       0.00000000       0.00000000       0.00000000       2.30000000       0.00000000      -0.00000000       0.00000000
Fe       1.44330000       1.44330000       1.44330000       2.30000000      -0.00000000      -0.00000000      -0.00000000
2
Lattice="2.8866 0.0 0.0 0.0 2.8866 0.0 0.0 0.0 2.8866" Properties=species:S:1:pos:R:3:initial_magmoms:R:1:forces:R:3 energy=-16.433865237621404 stresses="_JSON [0.05251262132394931, 0.052512621323949474, 0.05251262130999885, 9.23167280669388e-18, 1.153959100836735e-18, -2.30791820167347e-18]" pbc="T T T"
Fe       0.00000000       0.00000000       0.00000000       2.30000000       0.00000000      -0.00000000      -0.00000000
Fe       1.44330000       1.44330000       1.44330000       2.30000000      -0.00000000       0.00000000       0.00000000
